512
THF sII Clathrate Hydrate 
O	5.32179	5.32179	8.5662
O	7.66071	4.2387	9.64929
O	9.64929	4.2387	7.66071
O	8.5662	5.32179	5.32179
O	4.2387	7.66071	9.64929
O	4.20371	9.63809	7.64989
O	5.26439	8.54844	5.30462
O	7.59104	9.68721	4.25266
O	9.65672	7.66856	4.2634
O	11.38513	11.38513	5.92487
O	11.98821	11.98821	8.5662
O	9.64929	13.0713	9.64929
O	7.66071	13.0713	7.66071
O	8.7438	11.98821	5.32179
O	13.0713	9.64929	9.64929
O	13.10629	7.6719	7.64989
O	12.04561	8.76156	5.30462
O	5.92487	11.38513	11.38513
O	5.32179	11.98821	8.7438
O	8.5662	11.98821	11.98821
O	5.26439	8.76156	12.00537
O	7.59104	7.62279	13.05734
O	9.65672	9.64144	13.0466
O	11.38513	5.92487	11.38513
O	11.98821	5.32179	8.7438
O	8.7438	5.32179	11.98821
O	12.04561	8.54844	12.00537
O	15.71263	15.71263	15.71263
O	16.31571	16.31571	13.0713
O	13.0713	16.31571	16.31571
O	16.37311	13.08906	16.33288
O	10.25237	10.25237	15.71263
O	13.97679	8.5662	13.97679
O	12.8937	9.64929	16.31571
O	8.53121	13.9656	13.98761
O	9.59189	12.87594	16.33288
O	15.71263	10.25237	10.25237
O	16.31571	9.64929	12.8937
O	16.37311	12.87594	9.63213
O	14.04646	14.01471	8.58016
O	10.25237	15.71263	10.25237
O	9.64929	16.31571	12.8937
O	12.8937	16.31571	9.64929
O	7.05763	7.05763	15.71263
O	3.33321	8.7438	13.97679
O	4.4163	7.66071	16.31571
O	8.77879	3.34441	13.98761
O	7.71811	4.43406	16.33288
O	1.59737	1.59737	15.71263
O	0.99429	0.99429	13.0713
O	4.2387	0.99429	16.31571
O	0.93689	4.22094	16.33288
O	7.05763	1.59737	10.25237
O	7.66071	0.99429	12.8937
O	4.4163	0.99429	9.64929
O	3.32578	3.34106	8.5909
O	1.59737	7.05763	10.25237
O	0.99429	7.66071	12.8937
O	0.93689	4.43406	9.63213
O	7.05763	15.71263	7.05763
O	7.66071	16.31571	4.4163
O	4.4163	16.31571	7.66071
O	8.7438	13.97679	3.33321
O	3.32578	13.96894	8.7191
O	1.59737	10.25237	7.05763
O	0.99429	9.64929	4.4163
O	3.33321	8.5662	3.33321
O	0.93689	12.87594	7.67788
O	7.05763	10.25237	1.59737
O	4.4163	9.64929	0.99429
O	7.71811	12.87594	0.97713
O	1.59737	15.71263	1.59737
O	0.99429	16.31571	4.2387
O	4.2387	16.31571	0.99429
O	0.93689	13.08906	0.97713
O	15.71263	7.05763	7.05763
O	16.31571	7.66071	4.4163
O	13.97679	8.7438	3.33321
O	16.37311	4.43406	7.67788
O	14.04646	3.29529	8.72984
O	10.25237	1.59737	7.05763
O	9.64929	0.99429	4.4163
O	12.8937	0.99429	7.66071
O	8.5662	3.33321	3.33321
O	15.71263	1.59737	1.59737
O	16.31571	0.99429	4.2387
O	13.0713	0.99429	0.99429
O	16.37311	4.22094	0.97713
O	10.25237	7.05763	1.59737
O	12.8937	7.66071	0.99429
O	9.59189	4.43406	0.97713
O	11.38513	2.73013	14.57987
O	11.98821	3.33321	17.2212
O	12.04561	0.10656	13.95962
O	2.73013	11.38513	14.57987
O	3.33321	11.98821	17.2212
O	0.0888	11.98821	13.97679
O	14.57987	5.92487	14.57987
O	13.97679	5.32179	17.2212
O	17.2212	5.32179	13.97679
O	5.92487	14.57987	14.57987
O	5.32179	13.97679	17.2212
O	5.26439	17.20344	13.95962
O	2.73013	2.73013	5.92487
O	0.0888	3.33321	5.32179
O	3.39061	0.10656	5.30462
O	2.73013	14.57987	11.38513
O	0.0888	13.97679	11.98821
O	3.39061	17.20344	12.00537
O	14.57987	2.73013	11.38513
O	17.2212	3.33321	11.98821
O	13.91939	0.10656	12.00537
O	14.57987	14.57987	5.92487
O	17.2212	13.97679	5.32179
O	13.91939	17.20344	5.30462
O	5.92487	2.73013	2.73013
O	5.32179	3.33321	0.0888
O	5.26439	0.10656	3.35037
O	2.73013	5.92487	2.73013
O	3.33321	5.32179	0.0888
O	0.0888	5.32179	3.33321
O	14.57987	11.38513	2.73013
O	13.97679	11.98821	0.0888
O	17.2212	11.98821	3.33321
O	11.38513	14.57987	2.73013
O	11.98821	13.97679	0.0888
O	12.04561	17.20344	3.35037
O	0.0	0.0	0.0
O	4.32748	4.31665	4.31671
O	8.655	8.655	0.0
O	0.0	8.655	8.655
O	8.655	0.0	8.655
O	12.98252	12.99335	4.31671
O	4.32748	12.99335	12.99329
O	12.98252	4.31665	12.9933
H	5.75998	6.83792	5.68955
H	5.53914	5.52632	7.65672
H	8.03033	4.60062	10.45466
H	8.95131	4.25234	8.31559
H	8.58169	4.66966	4.62128
H	4.60062	6.85534	9.27967
H	4.22695	8.98285	8.34728
H	4.8662	8.92706	6.08841
H	6.78722	9.29891	4.59812
H	9.00013	8.36495	4.27642
H	11.60951	11.60961	6.82792
H	11.1903	12.26079	9.01927
H	8.97274	13.09949	8.97274
H	8.03033	12.70938	6.85534
H	9.65123	11.75854	5.52191
H	12.71605	9.23914	10.43784
H	14.01431	7.44697	7.44707
H	11.82119	9.66486	5.52804
H	5.68711	10.48536	11.60901
H	6.12716	12.35783	8.38188
H	8.92812	12.35783	11.18284
H	4.56555	8.73596	12.65898
H	7.87445	6.83584	12.59191
H	8.95375	8.99183	13.03861
H	11.62289	6.82464	11.60901
H	11.77086	5.52632	9.65328
H	9.66128	5.51484	11.79534
H	11.25391	8.92365	12.39094
H	14.79521	15.93879	15.8657
H	16.71554	15.53098	12.69638
H	12.71622	16.72167	15.52492
H	17.03457	13.12668	17.02374
H	10.10154	10.02603	14.79489
H	13.70421	9.01927	14.7747
H	13.26862	10.43402	16.71554
H	8.89891	13.5635	14.7746
H	10.39794	13.24711	16.6917
H	14.79478	10.10734	10.02268
H	16.11118	9.86664	11.98422
H	15.57951	13.33442	9.35602
H	13.35308	13.35482	8.5826
H	11.15567	15.93656	10.02844
H	9.27152	15.5136	13.25446
H	12.9066	17.01388	8.99459
H	7.26711	7.27823	14.80506
H	3.60579	8.29073	14.7747
H	4.05438	6.85534	16.68533
H	8.33196	3.61954	14.78816
H	6.91206	4.06289	16.6917
H	1.43248	2.51042	15.94795
H	0.62467	1.79966	12.70938
H	4.59378	0.58833	15.52492
H	1.74161	4.66336	16.60293
H	7.59067	1.03519	9.69019
H	8.33726	0.31774	12.86551
H	3.95982	1.79483	9.39044
H	4.00494	4.01486	8.55977
H	1.3601	6.1576	10.02904
H	1.18321	7.47179	11.97454
H	1.73034	4.05962	9.24942
H	6.14021	15.93879	7.2107
H	8.35869	16.97059	4.40266
H	4.03818	15.5301	8.05577
H	8.7309	13.27862	3.98791
H	2.53558	13.56369	8.36192
H	2.51469	10.10393	7.28723
H	1.19882	9.86664	5.32578
H	3.11586	7.65672	3.12868
H	0.54043	13.26009	6.89591
H	7.59067	9.69019	1.03519
H	4.40266	8.95131	0.33941
H	8.37957	12.83832	0.28627
H	1.37344	15.93656	2.50067
H	1.78375	16.71722	4.6017
H	3.32922	16.09836	1.19882
H	1.16392	13.99395	1.19129
H	15.93656	7.28156	6.15433
H	16.71554	6.87598	4.04138
H	14.76322	8.36955	3.73032
H	16.13596	5.33719	7.4673
H	13.36439	3.96665	8.74704
H	11.16979	1.4443	7.28379
H	9.85382	1.21164	5.32578
H	13.32906	0.71297	6.856
H	8.91702	3.71009	2.52629
H	15.9499	2.4974	1.37404
H	15.50775	0.62425	4.59437
H	12.72048	0.61741	1.80121
H	15.58103	4.59514	0.59135
H	10.00587	6.14631	1.43937
H	11.98422	7.45618	1.21164
H	10.38397	4.05986	0.59135
H	11.53976	2.95616	15.49706
H	12.68619	3.98809	17.23484
H	11.23956	-0.26461	13.6008
H	2.95629	10.46771	14.4268
H	3.73304	11.20348	17.59612
H	-0.26202	12.36509	14.78371
H	14.35436	6.8274	14.35447
H	13.60717	6.12716	17.58312
H	17.58312	6.12716	13.60717
H	6.84219	14.43143	14.35027
H	5.53296	14.18359	16.31078
H	6.05647	17.57764	13.57385
H	1.81228	2.87516	5.69518
H	-0.35044	3.60538	6.12754
H	3.78707	-0.27759	6.08659
H	2.95217	14.35267	10.48219
H	1.00796	14.16571	11.79929
H	3.16358	16.29855	11.79121
H	15.49772	2.87516	11.61482
H	17.57628	3.73917	11.19742
H	13.2776	0.09399	12.71543
H	15.49674	14.35765	5.763
H	17.59612	14.76152	4.92196
H	13.25793	17.16582	4.61376
H	5.36421	3.27049	3.28682
H	5.52632	3.11586	0.99828
H	6.06911	-0.33586	3.62042
H	1.82683	5.70085	2.95395
H	4.00976	4.64524	0.11699
H	0.0759	4.62362	3.98791
H	14.35371	10.46771	2.8832
H	13.32356	12.68772	0.07469
H	16.31037	11.78038	3.12483
H	10.48234	14.35492	2.95508
H	12.35783	14.78216	-0.27312
H	11.23956	17.57461	3.70919
H	-0.53524	-0.53524	-0.58588
H	4.86142	4.85453	4.90137
H	9.24088	9.19024	-0.53524
H	0.53524	9.24088	8.11976
H	8.11976	-0.53524	8.06912
H	13.56838	13.52462	4.85592
H	4.86407	13.52592	13.58037
H	12.44593	3.72957	13.52588
H	6.84272	5.77984	5.69518
H	6.12716	4.95217	8.92812
H	7.45618	3.32922	9.86664
H	9.24946	4.61362	6.87598
H	8.94432	6.1074	4.92673
H	3.32922	7.44336	9.85382
H	4.58643	10.42187	8.04415
H	4.56904	8.57135	4.6472
H	7.39129	9.87671	3.33592
H	10.44563	8.07583	4.62115
H	11.94514	11.94889	5.39121
H	12.26079	11.1903	9.01927
H	9.83821	13.99046	9.83821
H	7.45618	13.98078	7.44336
H	8.36822	11.18681	4.9572
H	13.06858	8.95167	8.99389
H	12.73716	6.86979	8.01947
H	12.40739	8.39732	6.1125
H	5.36855	11.92674	11.94495
H	5.53914	11.78368	9.65328
H	7.65672	11.78368	11.77086
H	4.87305	8.37812	11.22048
H	6.79843	7.90076	12.59828
H	9.25796	10.43107	12.68094
H	11.94145	5.38326	11.94495
H	11.18284	4.95217	8.38188
H	8.77794	4.64916	12.66838
H	12.69038	8.57004	12.7125
H	15.8657	15.93879	14.79521
H	17.01369	16.97059	13.05766
H	13.0584	17.01388	16.9704
H	16.16997	14.00539	16.14497
H	11.16961	10.02692	15.86779
